LTspice 26.0.1 for Windows
Circuit: Z:\home\kjetil\code\electronics_projects\projects\network_analysis\branch_current_method\current_and_voltage_source\simulation\simulation.net
Start Time: Thu Jan  1 03:32:27 2026
solver = Normal
Maximum thread count: 24
tnom = 27
temp = 27
method = trap
Direct Newton iteration succeeded in finding operating point.
Total elapsed time: 0.028 seconds.

Files loaded:
Z:\home\kjetil\code\electronics_projects\projects\network_analysis\branch_current_method\current_and_voltage_source\simulation\simulation.net

